@<TRIPOS>MOLECULE
Cpptraj Generated mol2 file.
   21    21     1     0     0
SMALL
NO_CHARGES


@<TRIPOS>ATOM
      1 O           1.0990    0.7800    0.7260 O          1 IG1      0.000000
      2 F          -2.3260    0.0910   -0.0950 F          1 IG1      0.000000
      3 O          -0.7320   -1.6160    1.3450 O          1 IG1      0.000000
      4 O           3.3640   -0.1730   -0.6070 O          1 IG1      0.000000
      5 C          -0.9310    0.1490   -0.3050 C          1 IG1      0.000000
      6 C          -0.2060   -1.1140    0.1170 C          1 IG1      0.000000
      7 C           1.2150   -0.6080    0.3410 C          1 IG1      0.000000
      8 C          -0.2670    1.2030    0.5660 C          1 IG1      0.000000
      9 C           2.0740   -0.6710   -0.9150 C          1 IG1      0.000000
     10 C          -0.3010    2.5930   -0.0450 C          1 IG1      0.000000
     11 H          -0.7120    0.3670   -1.3600 H          1 IG1      0.000000
     12 H          -0.2770   -1.9180   -0.6220 H          1 IG1      0.000000
     13 H           1.7180   -1.1240    1.1670 H          1 IG1      0.000000
     14 H          -0.7280    1.2390    1.5600 H          1 IG1      0.000000
     15 H           1.6620   -0.0500   -1.7160 H          1 IG1      0.000000
     16 H           2.1710   -1.7020   -1.2700 H          1 IG1      0.000000
     17 H           0.2240    2.6140   -1.0060 H          1 IG1      0.000000
     18 H           0.2140    3.3060    0.6070 H          1 IG1      0.000000
     19 H          -1.3290    2.9360   -0.1970 H          1 IG1      0.000000
     20 H          -0.1990   -2.3900    1.5930 H          1 IG1      0.000000
     21 H           3.8940   -0.2280   -1.4210 H          1 IG1      0.000000
@<TRIPOS>BOND
    1     1     7 1
    2     1     8 1
    3     2     5 1
    4     3     6 1
    5     4     9 1
    6     5     6 1
    7     5     8 1
    8     6     7 1
    9     7     9 1
   10     8    10 1
   11     3    20 1
   12     4    21 1
   13     5    11 1
   14     6    12 1
   15     7    13 1
   16     8    14 1
   17     9    15 1
   18     9    16 1
   19    10    17 1
   20    10    18 1
   21    10    19 1
@<TRIPOS>SUBSTRUCTURE
      1 IG1               1 ****               0 ****  **** 
